PowerFlow.Api/Cases/case14.m
function mpc = case14
%CASE14  Power flow data for IEEE 14-bus test case.
%   Values from the MATPOWER 7.x distribution (case14.m).
%   Used for solver validation against published MATPOWER results.

mpc.version = '2';
mpc.baseMVA = 100;

%% bus data
%  bus_i  type  Pd     Qd     Gs  Bs    area  Vm      Va        baseKV  zone  Vmax  Vmin
mpc.bus = [
    1      3     0      0      0   0     1     1.060    0.000    0       1     1.06  0.94;
    2      2     21.7   12.7   0   0     1     1.045   -4.984    0       1     1.06  0.94;
    3      2     94.2   19.0   0   0     1     1.010  -12.725    0       1     1.06  0.94;
    4      1     47.8   -3.9   0   0     1     1.019  -10.313    0       1     1.06  0.94;
    5      1     7.6    1.6    0   0     1     1.020   -8.774    0       1     1.06  0.94;
    6      2     11.2   7.5    0   0     1     1.070  -14.221    0       1     1.06  0.94;
    7      1     0      0      0   0     1     1.062  -13.360    0       1     1.06  0.94;
    8      2     0      0      0   0     1     1.090  -13.360    0       1     1.06  0.94;
    9      1     29.5   16.6   0   19    1     1.056  -14.939    0       1     1.06  0.94;
    10     1     9.0    5.8    0   0     1     1.051  -15.097    0       1     1.06  0.94;
    11     1     3.5    1.8    0   0     1     1.057  -14.791    0       1     1.06  0.94;
    12     1     6.1    1.6    0   0     1     1.055  -15.076    0       1     1.06  0.94;
    13     1     13.5   5.8    0   0     1     1.050  -15.156    0       1     1.06  0.94;
    14     1     14.9   5.0    0   0     1     1.036  -16.034    0       1     1.06  0.94;
];

%% generator data
%  bus  Pg      Qg      Qmax  Qmin  Vg     mBase  status  Pmax    Pmin
mpc.gen = [
    1   232.4   -16.9   10    0     1.060  100    1       332.4   0;
    2   40.0     42.4   50   -40    1.045  100    1       140.0   0;
    3    0.0     23.4   40    0     1.010  100    1       100.0   0;
    6    0.0     12.2   24   -6     1.070  100    1       100.0   0;
    8    0.0     17.4   24   -6     1.090  100    1       100.0   0;
];

%% branch data
%  fbus  tbus  r        x        b       rateA  rateB  rateC  ratio  angle  status  angmin  angmax
mpc.branch = [
    1     2     0.01938  0.05917  0.0528  0      0      0      0      0      1       -360    360;
    1     5     0.05403  0.22304  0.0492  0      0      0      0      0      1       -360    360;
    2     3     0.04699  0.19797  0.0438  0      0      0      0      0      1       -360    360;
    2     4     0.05811  0.17632  0.0340  0      0      0      0      0      1       -360    360;
    2     5     0.05695  0.17388  0.0346  0      0      0      0      0      1       -360    360;
    3     4     0.06701  0.17103  0.0128  0      0      0      0      0      1       -360    360;
    4     5     0.01335  0.04211  0       0      0      0      0      0      1       -360    360;
    4     7     0        0.20912  0       0      0      0      0.978  0      1       -360    360;
    4     9     0        0.55618  0       0      0      0      0.969  0      1       -360    360;
    5     6     0        0.25202  0       0      0      0      0.932  0      1       -360    360;
    6     11    0.09498  0.19890  0       0      0      0      0      0      1       -360    360;
    6     12    0.12291  0.25581  0       0      0      0      0      0      1       -360    360;
    6     13    0.06615  0.13027  0       0      0      0      0      0      1       -360    360;
    7     8     0        0.17615  0       0      0      0      0      0      1       -360    360;
    7     9     0        0.11001  0       0      0      0      0      0      1       -360    360;
    9     10    0.03181  0.08450  0       0      0      0      0      0      1       -360    360;
    9     14    0.12711  0.27038  0       0      0      0      0      0      1       -360    360;
    10    11    0.08205  0.19207  0       0      0      0      0      0      1       -360    360;
    12    13    0.22092  0.19988  0       0      0      0      0      0      1       -360    360;
    13    14    0.17093  0.34802  0       0      0      0      0      0      1       -360    360;
];
